curent/NA_50_50_50_HVDC3_out.txt
ANDES 0.6.0.post0.dev0+ge796a5a
Copyright (C) 2015-2018 Hantao Cui

ANDES comes with ABSOLUTELY NO WARRANTY
Use this software AT YOUR OWN RISK

Case file: NA_50_50_50_HVDC3.dm
report Time: 10/03/2018 06:31:29 PM

Power flow method: NR
Number of iterations: 0.0
Flat-start: No

SUMMARY:
Buses                    995
Generators               146
Committed Gens             5
Loads                   1234
Shunts                   766
Lines                   4099
Transformers            1375
Areas                      0

EXTENDED SUMMARY:
                      P (pu)        Q (pu)

Generation              7454          1657
Load                    7300          3226
Shunt Inj                  0          2339
Losses                 70.86         769.9
Line Charging          126.2         63.74

BUS DATA:
                      Vm(pu)       Va(deg)       Pg (pu)       Qg (pu)       Pl (pu)       Ql (pu)

1.0-CORONADO          0.9931        -31.83    -1.421e-14    -6.661e-15          17.5         -0.56
2.0-CHOLLA             1.028         -23.2    -1.151e-14    -2.686e-14             0             0
3.0-CORONADO           1.011        -25.22             8        -1.288             1             0
4.0-CRAIG              1.014         2.397             0     -6.35e-14          23.5         -1.27
5.0-CRAIG              1.017         8.931         10.48        0.8011             1             0
6.0-FOURCORN           1.123         -20.8     3.497e-15    -7.105e-15             0         1.425
7.0-FOURCORN           1.047        -17.66     9.148e-14     6.151e-14          2.39          1.14
8.0-FCNGN4CC           1.019        -11.12          21.6        -3.638             1             0
9.0-FOURCORN           1.045        -18.16    -1.021e-14    -2.559e-14         1.397         0.238
10.0-HAYDEN                1         19.16          20.5         1.943             1             0
11.0-NAVAJO            1.149        -34.13    -1.488e-14    -4.174e-14        0.9812          3.27
12.0-NAVAJO 2          1.081        -28.85          16.9         3.549             1             0
13.0-MOENKOPI          1.148        -34.85     -3.73e-14     8.882e-15             0         5.156
14.0-PALOVRD2          1.039        -31.42          26.4         5.538             1             0
15.0-PALOVRDE          1.126        -38.22      3.02e-14     6.397e-14         5.121         4.004
16.0-SAN JUAN          1.062        -16.74     1.243e-14     2.576e-14           8.4        -4.347
17.0-SJUAN G4           1.01        -13.86          9.62        -1.046             1             0
18.0-WESTWING          1.135        -38.44    -3.553e-15    -3.553e-15         6.567         4.764
19.0-NAVAJO1           1.142        -33.31      2.13e-15     1.801e-14             0             0
20.0-NAVAJO2           1.146        -35.67    -1.323e-14     9.493e-15             0             0
21.0-NAVAJO3            1.12        -32.75    -1.901e-14     1.459e-14             0             0
22.0-NAVAJO4           1.102        -39.86     -6.01e-15     5.017e-15             0             0
23.0-MOENKOPI          1.136        -33.74     -2.24e-14    -1.901e-14             0             0
24.0-MOENKOP2          1.117        -39.57    -2.124e-15     2.236e-14             0             0
25.0-MOENKOP3           1.15        -26.44     5.551e-15     -2.22e-16             0        -1.323
26.0-MOENKOP4          1.028        -52.72     4.425e-15    -5.813e-15             0             0
27.0-FOURCOR1          1.111        -18.73    -1.534e-14    -6.982e-14             0             0
28.0-FOURCOR2          1.132        -40.18    -4.233e-15    -1.748e-14             0             0
29.0-CANAD G1          1.055         13.97          44.5         10.52             1             0
30.0-CANADA            1.094         10.56    -4.263e-14     1.066e-13            44            10
31.0-CANALB            1.039         38.63             0     8.882e-16             0         6.481
32.0-CA230TO          0.9985          43.3    -3.064e-14     1.599e-14             0        -5.981
33.0-CA230             1.004         52.24     1.421e-14    -8.704e-14            36             7
34.0-CMAIN GM           1.02         57.15          44.8         10.18             1             0
35.0-BRIDGER2          1.061        -6.439          16.4         2.645             1             0
36.0-ADELANTO          1.064        -52.53     2.096e-13     4.441e-14        -18.62       -0.6227
37.0-ADELAN&1          1.084        -57.96     -3.43e-14    -3.286e-15             0             0
38.0-CASTAIC           1.036        -59.66    -1.914e-14     3.999e-14             0             0
39.0-CASTAI4G          1.024        -58.36             2       -0.5384             1             0
40.0-GLENDAL           1.036        -62.71    -3.997e-14     9.193e-14          1.35       -0.8029
41.0-HAYNES             1.04        -62.34    -9.973e-15     3.114e-15             0             0
42.0-HAYNES3G          1.005        -59.08          3.25        0.5636             1             0
43.0-INTERMT           1.067        -14.36     7.105e-15     3.997e-14         20.53         4.177
44.0-INTERM1G          1.061        -9.818          17.8          4.71             1             0
45.0-OLIVE             1.039        -59.92     4.075e-14    -8.327e-15        -0.728         -0.17
46.0-OWENS G           1.015        -59.53           1.1        0.2111             1             0
47.0-RINALDI           1.039        -60.12     3.457e-13    -3.839e-13          1.21          0.25
48.0-RINALDI           1.075        -56.87     2.165e-15    -1.754e-14             0         0.925
49.0-RIVER             1.033        -63.52     3.864e-14    -1.061e-13           3.2          0.65
50.0-STA B              1.04        -63.32    -1.954e-14     1.072e-13         2.372        -0.632
51.0-STA B1            1.043        -62.02     -7.52e-15     2.302e-15             0             0
52.0-STA B2            1.043        -62.02     -7.52e-15     2.302e-15             0             0
53.0-STA BLD           1.036        -63.65     4.241e-14     -7.05e-15          1.38          0.28
54.0-STA E             1.033        -61.89    -1.208e-13     1.621e-14         8.078         1.321
55.0-STA E             1.049        -59.07    -1.279e-14    -7.663e-15             0             0
56.0-STA F             1.034        -63.52    -5.329e-14    -1.776e-14          1.17          0.24
57.0-STA G             1.034        -62.92    -5.596e-14     1.105e-14          1.21          0.25
58.0-STA J             1.036        -61.19     6.573e-14     2.603e-14         8.877        -0.062
59.0-SYLMARLA          1.042        -59.73     1.315e-13    -1.816e-13        -20.71        -6.797
60.0-SYLMAR S          1.024        -60.65    -2.816e-13    -3.419e-14          4.01         0.806
61.0-VALLEY            1.035        -61.15    -6.395e-14     2.204e-14         2.052         0.176
62.0-VICTORVL          1.057        -55.14    -6.661e-16     2.442e-15         -1.29         1.529
63.0-VICTORVL          1.063        -52.74    -6.061e-14     2.979e-14             0             0
64.0-MONTA G1           1.08         34.24          29.1        -2.296             1        -11.66
65.0-MONTANA           1.139         27.08     2.487e-14      -2.3e-13         18.22         5.809
66.0-BIG EDDY          1.007        -21.06     2.665e-15     1.277e-15           1.6        0.3125
67.0-BIG EDDY          1.006         -18.4     2.665e-14     1.654e-13        -0.675        0.5875
68.0-BIG EDDY          1.053         -16.8     7.939e-13     3.745e-12        -0.442          0.22
69.0-DALLES21           1.03        -11.21         13.01          2.18             1        -5.304
70.0-CELILO                1           -19    -1.918e-13    -1.759e-13          34.4         21.37
71.0-CELILOCA          1.052        -16.92    -1.472e-13    -2.218e-12             0        -1.106
72.0-COLSTRP           1.148          6.28     7.105e-15     1.023e-14         -20.6          15.9
73.0-COULEE            1.113        -7.097     4.274e-15      1.11e-14             0         2.477
74.0-GARRISON          1.094        -18.72     6.715e-13     4.867e-13         25.84        -6.232
75.0-JOHN DAY          1.093        -14.33    -4.974e-14    -2.309e-13            32         -3.34
76.0-JOHN DAY          1.045     3.108e-14         69.71         22.37             1             0
77.0-HANFORD           1.137        -7.165    -4.974e-14     -1.67e-13         37.43        -14.06
78.0-NORTH G3          1.065         15.34          98.6         19.37             1             0
79.0-NORTH             1.114         2.663    -2.132e-14     1.927e-13         51.24         2.859
80.0-BURNS             1.089        -25.23     -2.22e-15    -1.021e-14             0          2.61
81.0-GRIZZLY             1.1        -22.27     4.785e-14     6.395e-14       -0.6661         7.186
82.0-MALIN             1.105        -29.61     -7.55e-15     3.064e-14        -3.423        -3.645
83.0-MIDPOINT          1.116         -13.1    -5.107e-15    -1.776e-15             0         2.742
84.0-MIDPOINT          1.052        -10.08      9.77e-15    -6.395e-14           6.1         5.487
85.0-SUMMER L          1.099        -24.07    -2.234e-14    -1.697e-13             0             0
86.0-GRIZZLY1          1.113        -24.76    -1.077e-14      4.97e-15             0             0
87.0-GRIZZLY2          1.092        -20.54    -6.355e-15     -1.42e-14             0             0
88.0-MALIN1            1.084        -19.61    -1.868e-14     3.936e-14             0             0
89.0-MALIN2            1.105        -25.78    -9.662e-16     7.024e-14             0             0
90.0-GRIZZLY3          1.128        -27.73     7.822e-15     3.211e-14             0             0
91.0-GRIZZLY4          1.101        -22.39    -1.274e-15     1.745e-14             0             0
92.0-GRIZZLY5          1.118        -28.53    -1.456e-14    -1.016e-14             0             0
93.0-GRIZZLY6          1.105        -23.19     2.061e-14      2.32e-14             0             0
94.0-GRIZZLY7          1.128        -28.03    -7.533e-15    -1.415e-14             0             0
95.0-GRIZZLY8          1.101        -22.39     1.447e-14    -5.961e-15             0             0
96.0-GRIZZLY9          1.118        -28.87     1.605e-14     4.556e-14             0             0
97.0-GRIZZLYA          1.104        -23.23    -5.143e-15     1.288e-14             0             0
98.0-BURNS1            1.025        -2.093     4.547e-16    -1.662e-17             0             0
99.0-CORTINA           1.028         -40.5      1.11e-16    -8.882e-16        -0.433         1.258
100.0-COTWDPGE         1.121        -36.93     -1.91e-14    -3.997e-15         2.187       -0.8002
101.0-DIABLO           1.089        -54.66    -4.097e-14     5.718e-14           0.5          0.25
102.0-DIABLO1          1.051        -51.23          7.65         1.693             1             0
103.0-GATES             1.07        -55.73      6.04e-14    -1.177e-14          3.05        0.9652
104.0-GLENN            1.017        -39.85      2.22e-16    -5.773e-15         0.275         1.551
105.0-LOGAN CR         1.112        -40.86    -2.304e-15    -6.196e-15        0.0818             0
106.0-LOSBANOS         1.062        -57.86    -2.753e-14     3.919e-14          2.65          0.14
107.0-MIDWAY           1.064        -57.18    -7.783e-14     2.349e-13         0.556        0.4099
108.0-MIDWAY           1.125        -60.22     1.599e-14      2.22e-14         8.135         7.936
109.0-MOSSLAND         1.059        -58.12     7.994e-15    -1.299e-14           0.4         0.215
110.0-OLINDA           1.099        -37.93     4.219e-15     2.864e-14         -1.89         1.823
111.0-ROUND MT         1.071        -22.79         10.57         8.827             1         7.166
112.0-ROUND MT          1.15        -32.15      1.91e-14     4.929e-14         1.618         1.653
113.0-ROUND MT         1.068        -34.83     5.312e-14    -8.638e-14             0         1.037
114.0-TABLE MT          1.05        -37.14     1.921e-14    -3.975e-14        -0.007         2.189
115.0-TEVATR           1.012        -41.52          5.94        0.2079             1        -2.048
116.0-TEVATR           1.079         -45.8    -1.776e-15    -8.882e-16          8.84         3.251
117.0-TEVATR2          1.012        -36.78         34.67         16.45             1        -5.121
118.0-TEVATR          0.9905        -44.96     7.816e-13    -5.826e-13         57.61        -9.238
119.0-OLINDA1          1.106        -31.23    -1.079e-14    -2.646e-15             0             0
120.0-OLINDA2          1.077        -44.57             0             0             0             0
121.0-OLINDA3          1.089        -37.69    -8.492e-15     1.669e-15             0             0
122.0-OLINDA4          1.049        -52.65     1.776e-15    -1.155e-14             0         7.697
123.0-ROUND1           1.071        -31.47             0             0             0             0
124.0-ROUND2           1.042        -39.47    -9.409e-15    -1.143e-14             0             0
125.0-ROUND3           1.071        -31.47     1.046e-14     2.517e-15             0             0
126.0-ROUND4           1.042        -39.47     2.286e-14    -1.882e-14             0             0
127.0-TABLE1           1.061        -29.93    -1.781e-14    -1.583e-14             0             0
128.0-TABLE2           1.024        -52.74    -1.998e-15     -9.77e-15             0         3.145
129.0-TABLE3           1.074        -31.89     1.367e-14     3.643e-14             0             0
130.0-TABLE4           1.002         -47.9     7.061e-14    -8.882e-15             0         5.019
131.0-TEVATR1          1.018        -42.29     5.773e-15    -1.776e-14             0         5.178
132.0-TEVATR2          1.071         -61.3    -1.637e-14    -1.764e-14             0             0
133.0-TEVATR3           1.11        -39.79     1.066e-14    -1.066e-14             0         11.09
134.0-GATES1           1.046         -59.7    -8.004e-15     -3.05e-14             0             0
135.0-DEVERS           1.077        -51.62     1.954e-14    -2.814e-14          8.56         0.196
136.0-EAGLROCK          1.01        -64.23     9.992e-15    -7.827e-15          1.75          0.18
137.0-ELDORADO          1.02        -35.88         9.827        -2.321             1        0.5202
138.0-ELDORADO         1.074        -42.85     -6.75e-14    -3.775e-14         9.023         3.565
139.0-LITEHIPE         1.009        -59.98         31.95         10.09             1             0
140.0-LITEHIPE         1.001        -66.27    -5.329e-14     4.441e-14         31.91           6.3
141.0-LUGO             1.054        -55.68     8.038e-14     2.031e-13         2.042        -0.282
142.0-MESA CAL             1        -65.56     1.021e-14    -1.088e-14         3.774         0.645
143.0-MIRALOMA         1.009        -54.67          16.9         0.154             1             0
144.0-MIRALOMA         1.027        -59.14     6.395e-14    -2.425e-13         30.98         7.667
145.0-MIRALOMA         1.025        -59.67    -1.471e-14     2.515e-14             0             0
146.0-MOHAVE           1.078        -39.16     3.531e-14     -1.51e-14             0         2.279
147.0-MOHAV1CC          1.05        -30.91          16.8         3.612             1             0
148.0-PARDEE            1.01        -51.31            22         3.722             1             0
149.0-PARDEE           1.008        -63.37     2.842e-14     6.284e-14         31.18          0.78
150.0-SERRANO          1.039        -59.31    -5.684e-14    -1.488e-14          12.3         0.728
151.0-VALLEY           1.056        -56.31    -2.665e-15      4.43e-14          4.06          0.41
152.0-VINCENT          1.062        -58.06    -4.958e-14     2.246e-14             0             0
153.0-VINCENT         0.9955        -61.28     7.105e-15    -1.372e-13         10.66         1.775
154.0-CAMP WIL         1.074        -12.13     1.288e-13     3.164e-13         4.577         1.509
155.0-BENLOMND         1.087        -12.13     1.343e-14     2.254e-14         0.339         0.119
156.0-BENLOMND         1.095         -12.7    -6.883e-15     -1.95e-14          1.48        -0.079
157.0-EMERY            1.039        -6.977    -1.199e-14    -5.107e-14         1.161         2.758
158.0-EMERY             1.02        -2.072         16.65        -5.862             1             0
159.0-MONA             1.075        -12.09     3.408e-14     8.157e-14         -0.62         0.128
160.0-NAUGHTON         1.111        -8.963     8.882e-16     -7.55e-15         2.601          1.02
161.0-NAUGHT           1.062        -6.482          4.45        0.8869             1             0
162.0-PINTO PS          1.13        -15.53     2.366e-15     1.602e-14             0             0
163.0-PINTO            1.158        -14.47    -1.166e-15    -1.643e-14        0.3502        -2.554
164.0-SPAN FRK         1.058        -11.46     -2.22e-15    -1.132e-14         1.412         0.714
165.0-SIGURD           1.077        -11.51     5.329e-15     3.531e-14          3.79        0.1497
166.0-TERMINAL         1.073        -12.19    -1.514e-13    -1.014e-13          1.85         0.785
167.0-MALIN3           1.126        -25.58     1.459e-14    -1.586e-14             0             0
168.0-MALIN4           1.048        -39.27     2.104e-15    -2.095e-14             0             0
169.0-MALIN5            1.13        -24.74     3.646e-15     -1.68e-15             0             0
170.0-MALIN6           1.049         -39.3     2.092e-15    -2.098e-14             0             0
171.0-MALIN7           1.061        -23.52     8.216e-15     7.994e-15             0        -3.377
172.0-MALIN8           1.089        -43.83     1.332e-15      1.11e-14             0        -2.371
173.0-MIDWAY1          1.053        -56.19    -4.106e-15    -2.076e-14             0             0
174.0-MIDWAY2          1.054        -59.06      2.57e-14     1.541e-14             0             0
175.0-MIDWAY3          1.053        -56.17    -3.042e-15    -2.905e-14             0             0
176.0-MIDWAY4          1.054        -59.06     1.285e-14     7.703e-15             0             0
177.0-MIDWAY5          1.053        -56.13    -2.067e-14    -2.288e-14             0             0
178.0-MIDWAY6          1.057        -59.01    -1.296e-15     1.674e-14             0             0
179.0-BURNS2           1.038        -14.32    -2.887e-15    -5.329e-15             0          2.37
180.0-ADDBUS1              1        -18.72     -3.85e-13         9.277             0             0
181.0-ADDBUS2          1.109        -44.96    -1.166e-15        0.9371             0             0
2183.0-NEXMEXIC         1.047        -17.66     2.836e-14     -9.03e-15             0             0
2184.0-NEXMEXIC         1.047        -17.66    -5.318e-15     1.693e-15             0             0
2185.0-WYOMING1         1.039        -11.55    -5.029e-14    -1.863e-13             0        -1.619
2186.0-WYOMING2         1.039        -11.55     2.629e-14     5.491e-14             0             0
2187.0-ALBERTA2         1.042         10.56     1.653e-14     1.537e-13             0             0
2188.0-MONTANA1         1.045         27.08    -1.412e-14     9.283e-14             0             0
2189.0-WYOMING3         1.039        -11.55    -3.616e-15      7.39e-16             0             0
2190.0-ALBERTA3         1.042         10.56      5.43e-15    -2.912e-14             0             0
2191.0-NEXMEXIC         1.047        -17.66    -1.933e-14     3.739e-14             0             0
2192.0-MONTANA2         1.045         27.08    -3.996e-14     1.292e-14             0             0
30001.0-HEARNE9         1.003         31.46    -3.453e-15     4.073e-15        0.4118       0.04529
30002.0-HILTOPLK         1.014         33.71     -1.79e-15    -3.261e-15        0.3133      -0.02825
30003.0-PANCAKE         0.997         22.59     1.058e-15     1.554e-15        0.8459       -0.1639
30004.0-REAGORSP        0.9886         20.23     3.695e-16    -4.441e-16        0.7498       -0.1404
30005.0-WHITNEY8         1.022         33.46      8.66e-15     2.576e-14         2.842        -1.117
30006.0-HILLTOP8        0.9951         25.16    -5.274e-16     4.885e-15         2.072       -0.1497
30007.0-RENO          0.9903          22.5     4.108e-15    -6.217e-15         3.663       -0.1524
30008.0-OLNEY9         1.009         24.15    -4.545e-16     4.857e-16        0.5125       0.04491
30009.0-GIBN_CRE          1.02         33.73    -1.919e-14    -2.748e-14        0.6715      -0.03365
...

NODE DATA:
                       V(pu)

Node 0            -2.619e-22
Node 70 P              1.025
Node 59 P              1.028
Node 160002 P          1.024
Node 137523 P          1.025
Node 30035 P           1.028
Node 15 P              1.028
Node 72 P              1.025
Node 157962 P          1.022
Node 115250 P          1.033
Node 70 N              1.025
Node 59 N              1.022
Node 160002 N          1.011
Node 137523 N          1.014
Node 30035 N           1.014
Node 15 N              1.014
Node 72 N              1.017
Node 157962 N          1.006
Node 115250 N          1.022

LINE DATA:
                    From Bus        To Bus   P From (pu)   Q From (pu)     P To (pu)      Q To(pu)    P Loss(pu)    Q Loss(pu)

Line_0                     2             7         -5.25        -1.627         5.297       -0.6268        0.0468        -2.254
Line_1                     2             7         -5.25        -1.627         5.297       -0.6268        0.0468        -2.254
Line_10                   11            19         2.972        -1.278        -2.972         1.228     7.932e-10      -0.05029
Line_100                  72            74          5.15        -3.975        -3.091         4.435         2.059        0.4597
Line_101                  73            77     4.274e-15        -2.477      0.001609        0.1571      0.001609         -2.32
Line_102                  74            75        -1.377       -0.4148         1.383       -0.6033      0.006283        -1.018
Line_103                  74            75        -1.377       -0.4148         1.383       -0.6033      0.006283        -1.018
Line_104                  74            77         -2.68       -0.3584         2.714        0.3329       0.03412      -0.02544
Line_105                  74            77         -2.68       -0.3584         2.714        0.3329       0.03412      -0.02544
Line_106                  74            77         -2.68       -0.3584         2.714        0.3329       0.03412      -0.02544
Line_107                  74            77         -2.68       -0.3584         2.714        0.3329       0.03412      -0.02544
Line_108                  75            77        -6.767        -2.347         6.815         1.134       0.04774        -1.213
Line_109                  75            77        -7.784        -3.972           7.8        0.5611       0.01604         -3.41
Line_11                   11            21         2.621         -2.78        -2.621         2.649     1.106e-09       -0.1314
Line_110                  75            81         11.75       -0.8974        -11.67         1.208       0.07276        0.3109
Line_111                  75            81         6.887        -1.075        -6.844        0.1612       0.04328       -0.9142
Line_112                  75            81         6.884        -1.071        -6.842         0.159       0.04285       -0.9123
Line_113                  77            79        -13.27         2.732         13.33        -1.226        0.0575         1.505
Line_114                  77            79        -13.27         2.732         13.33        -1.226        0.0575         1.505
Line_115                  77            79        -13.27         2.732         13.33        -1.226        0.0575         1.505
Line_116                  77            79        -13.27         2.732         13.33        -1.226        0.0575         1.505
Line_117                  80            98         -4.01        0.1228         4.094         -1.37       0.08431        -1.247
Line_118                  80            98         -4.01        0.1228         4.094         -1.37       0.08431        -1.247
Line_119                  80           179          4.01        -1.428         -4.01        0.6129     1.527e-09       -0.8147
Line_12                   11           138         9.327         2.824        -9.116        -2.498        0.2106        0.3267
Line_120                  80           179          4.01        -1.428         -4.01        0.6129     1.527e-09       -0.8147
Line_121                  81            86         7.118        -2.638        -7.099         2.085        0.0188       -0.5523
Line_122                  81            90         9.199         -3.04        -9.149         2.797       0.04945       -0.2427
Line_123                  81            94         9.707        -3.037        -9.653         2.895       0.05469       -0.1425
Line_124                  82            88        -14.85         3.032         14.99        -1.901        0.1385         1.131
Line_125                  82            93        -9.045        0.3263         9.097       -0.6977       0.05289       -0.3714
Line_126                  82            97        -9.539        0.4771         9.595       -0.7115       0.05588       -0.2344
Line_127                  82           167         12.14         2.757        -12.14         -3.67     1.269e-08       -0.9135
Line_128                  82           169         12.27         2.613        -12.27        -3.726     1.288e-08        -1.113
Line_129                  82           171         12.45         -5.56        -12.45         4.039     1.521e-08        -1.521
Line_13                   13            20        -2.966       -0.5212         2.966        0.4776     6.879e-10      -0.04361
Line_130                  83            98         4.094        -2.317        -4.094          1.37     1.776e-09       -0.9471
Line_131                  83            98         4.094        -2.317        -4.094          1.37     1.776e-09       -0.9471
Line_132                  84           155        0.5558        -1.198       -0.5522      -0.03789      0.003624        -1.236
Line_133                  84           155        0.5558        -1.198       -0.5522      -0.03789      0.003624        -1.236
Line_134                  85            87        -7.073        0.7535         7.099        -1.527       0.02576       -0.7738
Line_135                  85            89         15.01        -3.371        -14.99         3.569       0.02342         0.198
Line_136                  85           179         -3.97         1.309          4.01        -1.798        0.0397       -0.4892
Line_137                  85           179         -3.97         1.309          4.01        -1.798        0.0397       -0.4892
Line_138                  86            87         7.099        -2.085        -7.099         1.527     4.418e-09        -0.558
Line_139                  88            89        -14.99         1.901         14.99        -3.569     1.944e-08        -1.668
Line_14                   13            23         3.062        -1.743        -3.062         1.665     9.414e-10      -0.07777
Line_140                  90            91         9.149        -2.797        -9.149         1.888     7.195e-09       -0.9087
Line_141                  91            92         9.149        -1.888        -9.097         1.559       0.05199        -0.329
Line_142                  92            93         9.097        -1.559        -9.097        0.6977     6.821e-09       -0.8614
Line_143                  94            95         9.653        -2.895        -9.653         1.887     7.979e-09        -1.008
Line_144                  95            96         9.653        -1.887        -9.595          1.67       0.05779       -0.2167
Line_145                  96            97         9.595         -1.67        -9.595        0.7115     7.593e-09        -0.959
Line_146                  99           100       -0.4938       -0.5859        0.5049        0.4275       0.01111       -0.1584
Line_147                  99           116        0.9268       -0.6717       -0.9096        0.6549       0.01719      -0.01677
Line_148                 100           104        0.7999         1.088       -0.7781        -1.069       0.02176       0.01914
Line_149                 100           105        0.7527      -0.07377       -0.7452      -0.04457      0.007517       -0.1183
Line_15                   13            25         10.76       -0.6747        -10.76       -0.9075     8.815e-09        -1.582
Line_150                 100           112        -1.633       -0.1868         1.657        0.2355       0.02378       0.04868
Line_151                 100           112        -1.668       -0.1972         1.692        0.2546       0.02344       0.05747
Line_152                 100           112        -1.642       -0.1872         1.666        0.2383       0.02387        0.0511
Line_153                 100           116         0.699      -0.07028       -0.6834       -0.1962       0.01565       -0.2665
Line_154                 101           103         1.163        0.2459        -1.162        -1.754      0.001614        -1.508
Line_155                 101           107         2.493        0.3893        -2.488         -1.94      0.005715        -1.551
Line_156                 101           107         2.493        0.3893        -2.488         -1.94      0.005715        -1.551
Line_157                 103           106         2.141        0.3852        -2.138       -0.3031      0.003434       0.08212
Line_158                 103           133         -8.94       -0.4933         9.005         1.391       0.06504        0.8978
Line_159                 103           134         4.911        0.8966        -4.894        -1.745       0.01663       -0.8482
Line_16                   13            28        -5.428        -1.109         5.428        0.5909     2.328e-09       -0.5176
Line_160                 104           116        0.5031       -0.4822       -0.4919        0.2881       0.01122       -0.1941
Line_161                 105           116        0.6634       0.04457        -0.655       -0.2041      0.008411       -0.1596
Line_162                 106           107       -0.9123      -0.05426        0.9134       0.06516      0.001134       0.01089
Line_163                 106           109        0.4001        0.2174          -0.4        -0.215     9.751e-05      0.002386
Line_164                 107           132        -6.142        0.3496         6.143       -0.7948      0.000669       -0.4452
Line_165                 107           134        -4.893        -1.991         4.894         1.745     0.0004933       -0.2462
Line_166                 107           173         2.084        -1.246        -2.084         1.197      5.21e-10      -0.04871
Line_167                 107           175         2.097        -1.262        -2.097         1.212     5.292e-10      -0.04996
Line_168                 107           177          2.21        -1.286         -2.21         1.231     5.777e-10      -0.05402
Line_169                 110           119         3.548      -0.01775        -3.548       -0.3991     1.042e-09       -0.4169
Line_17                   13            28        -5.428        -1.109         5.428        0.5909     2.328e-09       -0.5176
Line_170                 110           119         3.548      -0.01775        -3.548       -0.3991     1.042e-09       -0.4169
Line_171                 110           119         3.548      -0.01775        -3.548       -0.3991     1.042e-09       -0.4169
Line_172                 110           119         3.548      -0.01775        -3.548       -0.3991     1.042e-09       -0.4169
Line_173                 110           172         -12.3        -1.752          12.3        0.4736     1.278e-08        -1.278
Line_174                 113           114         13.62         2.739         -13.5        -2.153         0.122        0.5864
Line_175                 113           123         6.722        0.1456        -6.721       -0.5414     0.0007933       -0.3958
Line_176                 113           125         6.722        0.1456        -6.721       -0.5414     0.0007933       -0.3958
Line_177                 113           168           -12        -3.403            12         2.419     1.366e-08       -0.9835
Line_178                 113           170        -12.13        -3.194         12.13           2.2      1.38e-08       -0.9935
Line_179                 114           124        -6.663        -1.508         6.663         1.226      0.000423       -0.2817
Line_18                   15            18        0.4558        -1.567       -0.4554        0.4208     0.0003767        -1.146
Line_180                 114           126        -6.663        -1.508         6.663         1.226      0.000423       -0.2817
Line_181                 114           127         12.49         0.182        -12.49        -1.765      0.001414        -1.583
Line_182                 114           129         14.35         2.798        -14.35        -4.193      0.001937        -1.395
Line_183                 118           122        -6.951         2.411         6.951        -3.515     5.517e-09        -1.103
Line_184                 118           122        -6.951         2.411         6.951        -3.515     5.517e-09        -1.103
Line_185                 118           128        -12.26         2.112         12.26        -3.878      0.001577        -1.766
Line_186                 118           130        -14.15         2.736         14.16        -3.499      0.002118       -0.7626
Line_187                 118           131         6.204         3.419        -6.204        -3.805     0.0005116       -0.3862
Line_188                 118           133         9.007         10.37        -9.005        -12.48      0.001922        -2.111
Line_189                 119           120         7.096        0.7983        -7.032       -0.2198       0.06486        0.5785
Line_19                   15            18        0.4558        -1.567       -0.4554        0.4208     0.0003767        -1.146
Line_190                 119           120         7.096        0.7983        -7.032       -0.2198       0.06486        0.5785
Line_191                 120           121         7.032        0.2198        -7.032        -1.072     4.263e-09       -0.8526
Line_192                 120           121         7.032        0.2198        -7.032        -1.072     4.263e-09       -0.8526
Line_193                 121           122         3.516        0.5362        -3.475        -0.167       0.04046        0.3692
Line_194                 121           122         3.516        0.5362        -3.475        -0.167       0.04046        0.3692
Line_195                 121           122         3.516        0.5362        -3.475        -0.167       0.04046        0.3692
Line_196                 121           122         3.516        0.5362        -3.475        -0.167       0.04046        0.3692
Line_197                 123           124         6.721        0.5414        -6.663        -1.226       0.05752        -0.685
Line_198                 125           126         6.721        0.5414        -6.663        -1.226       0.05752        -0.685
Line_199                 127           128         12.49         1.765        -12.26        0.7327        0.2263         2.498
Line_2                     4            16         1.753       -0.6303        -1.695        0.1532       0.05868       -0.4771
Line_20                   15           135         9.665        0.7852        -9.465        -1.108        0.2001       -0.3223
Line_200                 129           130         14.35         4.193        -14.16         -1.52        0.1903         2.673
Line_201                 131           132         6.204        -1.372        -6.143        0.7948       0.06134       -0.5772
Line_202                 135           151         10.37         2.019        -10.33        -1.895       0.04104        0.1244
Line_203                 136           142        0.9266         0.261       -0.9249       -0.3362      0.001781      -0.07518
Line_204                 136           149       -0.2122      -0.03283        0.2126       -0.1263     0.0003928       -0.1591
Line_205                 138           141          9.12        -1.526        -8.979        -1.724        0.1415         -3.25
Line_206                 138           146        -5.263       -0.5497         5.277       -0.3182       0.01345       -0.8678
Line_207                 140           142         -0.48       0.07498        0.4805      -0.09298     0.0005222      -0.01801
Line_208                 140           142         -0.48       0.07498        0.4805      -0.09298     0.0005222      -0.01801
Line_209                 141           144         8.809         3.314        -8.787         -3.26       0.02284        0.0541
Line_21                   15           135         9.665        0.7852        -9.465        -1.108        0.2001       -0.3223
Line_210                 141           144         8.875         3.223        -8.846        -3.207       0.02876       0.01683
Line_211                 141           146        -10.34       -0.9899         10.52       -0.6834        0.1858        -1.673
Line_212                 141           150         5.473        0.6114        -5.456        -1.287       0.01689       -0.6755
Line_213                 141           152         4.101        -1.354        -4.094        0.6038      0.006982       -0.7497
Line_214                 141           152         4.101        -1.354        -4.094        0.6038      0.006982       -0.7497
Line_215                 142           145        -1.956       -0.3902         1.961        0.4454      0.005412       0.05528
Line_216                 142           153        -1.855        0.2673         1.866       -0.2703       0.01137     -0.003017
Line_217                 144           150        0.2959        -1.376       -0.2952          1.22     0.0006983       -0.1568
Line_218                 144           150        0.2959        -1.376       -0.2952          1.22     0.0006983       -0.1568
Line_219                 149           153       -0.9711        0.3788        0.9743        -0.465      0.003195      -0.08611
Line_22                   18            22        -2.607        -3.185         2.607         3.028     1.315e-09       -0.1563
Line_220                 149           153        -1.062        0.3803         1.064       -0.4491      0.001791      -0.06882
Line_221                 150           151        -6.254         -1.88         6.269         1.485       0.01534       -0.3957
Line_222                 152           174        -2.079       -0.9475         2.079        0.9042     4.626e-10      -0.04325
Line_223                 152           176        -2.092       -0.9331         2.092        0.8896     4.648e-10      -0.04346
Line_224                 152           178        -2.205       -0.7388         2.205        0.6985     4.791e-10      -0.04025
Line_225                 154           155      -0.03005       -0.7487        0.0304       0.07124     0.0003545       -0.6775
Line_226                 154           157        -1.593        0.2526         1.608        -1.211        0.0146       -0.9582
Line_227                 154           157        -1.781        0.4343         1.798        -1.232       0.01727       -0.7976
Line_228                 154           159       -0.5806       -0.4756        0.5812       0.01549     0.0005859       -0.4601
Line_229                 154           159       -0.5309          -0.4        0.5315      -0.04327     0.0005713       -0.4432
Line_23                   18            24        -3.049        -2.421         3.049         2.324     1.177e-09      -0.09723
Line_230                 154           159       -0.5806       -0.4756        0.5812       0.01549     0.0005859       -0.4601
Line_231                 154           159       -0.5309          -0.4        0.5315      -0.04327     0.0005713       -0.4432
Line_232                 154           164        -0.709        0.8322        0.7105        -1.149      0.001573        -0.317
Line_233                 154           166        0.8797       -0.2641       -0.8792       0.02983     0.0005519       -0.2342
Line_234                 154           166        0.8797       -0.2641       -0.8792       0.02983     0.0005519       -0.2342
Line_235                 155           166       0.09225        0.4082       -0.0917       -0.8447     0.0005547       -0.4365
Line_236                 156           160       -0.4187       -0.2271        0.4219       -0.1459      0.003173       -0.3729
Line_237                 156           160       -0.4187       -0.2271        0.4219       -0.1459      0.003173       -0.3729
Line_238                 157           159         2.742        -1.514        -2.715         1.164        0.0266       -0.3494
Line_239                 157           163         1.627         -2.24        -1.584        0.9053       0.04278        -1.335
Line_24                   19            20         2.972        -1.228        -2.966       -0.4776      0.005276        -1.705
Line_240                 157           164         2.138       -0.9727        -2.123        0.4352       0.01562       -0.5375
Line_241                 157           165         2.255        -1.501        -2.235         1.029       0.02031       -0.4715
Line_242                 157           165         2.267        -1.507        -2.246         1.039       0.02052       -0.4674
Line_243                 159           165        -0.349       -0.3477        0.3494        -0.323     0.0004007       -0.6707
Line_244                 159           165       -0.3404       -0.3483        0.3407       -0.3107     0.0003215       -0.6589
Line_245                 167           168         12.14          3.67           -12        -2.419        0.1375         1.251
Line_246                 169           170         12.27         3.726        -12.13          -2.2        0.1447         1.526
Line_247                 171           172         12.45       -0.6619         -12.3         1.898        0.1425         1.236
Line_248                 173           174         2.084        -1.197        -2.079       -0.9042      0.004829        -2.101
Line_249                 175           176         2.097        -1.212        -2.092       -0.8896      0.004893        -2.101
Line_25                   21            22         2.621        -2.649        -2.607        -3.028        0.0135        -5.677
Line_250                 177           178          2.21        -1.231        -2.205       -0.6985      0.004984         -1.93
Line_251                   1             2         -10.5        -1.585          10.5         3.254     1.143e-08         1.669
Line_252                   1             3            -7         2.145             7        -1.288     4.952e-09        0.8566
Line_253                   4             5         -9.48         0.282          9.48        0.8011     8.749e-09         1.083
Line_254                   4            10         -19.5         3.817          19.5         1.943      3.84e-08          5.76
Line_255                   6             7        -5.516         1.037         5.516       -0.7268     2.823e-09        0.3105
Line_256                   6             7        -5.516         1.037         5.516       -0.7268     2.823e-09        0.3105
Line_257                   7             8         -20.6         6.123          20.6        -3.638     4.211e-08         2.485
Line_258                   7             9        0.7011         0.126        -0.701       -0.1196     0.0001296      0.006386
Line_259                   7             9        0.6961        0.1247        -0.696       -0.1184     0.0001323      0.006339
Line_26                   23            24         3.062        -1.665        -3.049        -2.324       0.01339        -3.989
Line_260                  11            12         -15.9        -2.036          15.9         3.549     2.272e-08         1.513
Line_261                  15            14        -25.36         -2.44          25.4         5.538       0.03755         3.098
Line_262                  16            17         -8.62         1.489          8.62        -1.046     7.391e-09        0.4435
Line_263                  30            29         -43.5        -7.818          43.5         10.52     1.799e-07         2.698
Line_264                  31            32        -7.679        -4.752         7.679         5.665     9.135e-09        0.9135
Line_265                  33            34         -43.8        -6.288          43.8         10.18     1.943e-07         3.887
Line_266                  84            35         -15.4        -1.648          15.4         2.645     2.168e-08        0.9972
Line_267                  37            47         5.807       -0.8535        -5.803         1.077      0.004199        0.2238
Line_268                  38            39       -0.9994        0.5677             1       -0.5384     0.0006151       0.02928
Line_269                  41            42        -2.247       -0.4286          2.25        0.5636       0.00309         0.135
Line_27                   25            26         10.76          2.23        -10.54        -1.713        0.2179        0.5175
Line_270                  43            44         -16.8        -3.303          16.8          4.71     2.706e-08         1.407
Line_271                  47            46      -0.09974        -0.205           0.1        0.2111     0.0002639      0.006069
Line_272                  48            47         4.328        -1.028        -4.323         1.289      0.004906        0.2615
Line_273                  51            50         1.652       0.05503        -1.651      -0.01747      0.001486       0.03756
Line_274                  52            50         1.652       0.05503        -1.651      -0.01747      0.001486       0.03756
Line_275                  53            50       -0.4666       -0.3306        0.4667        0.3347     9.145e-05      0.004054
Line_276                  53            50       -0.4631       -0.3282        0.4632        0.3323     9.009e-05      0.004024
Line_277                  55            54         3.814        0.4049        -3.812       -0.2156      0.001775        0.1892
Line_278                  55            54         3.814        0.4049        -3.812       -0.2156      0.001775        0.1892
...
Line_EI_0              1e+05         1e+05         11.01         1.706         -10.9         1.114        0.1092          2.82
Line_EI_1              1e+05         1e+05         1.055       0.01638        -1.053       0.03825      0.001947       0.05463
Line_EI_10             1e+05         1e+05        -8.412        0.3236         8.488         1.589       0.07578         1.912
Line_EI_100         1.01e+05     1.011e+05        -4.828        0.5642         4.934       -0.1528        0.1057        0.4113
Line_EI_1000       1.182e+05     1.184e+05          20.3         7.351        -20.18        -3.454        0.1239         3.897
Line_EI_1001       1.184e+05     1.182e+05        -2.426        -1.045         2.432         1.309      0.005773        0.2632
Line_EI_1002       1.184e+05     1.182e+05        -2.258       -0.9883         2.263         1.217       0.00505         0.229
Line_EI_1003       1.182e+05     1.184e+05         6.474         2.282        -6.336        -1.001        0.1381          1.28
Line_EI_1004       1.182e+05     1.184e+05         5.651         1.843        -5.557       -0.3149       0.09416         1.528
Line_EI_1005       1.185e+05     1.182e+05        -11.81        0.5116         11.83        0.8095       0.02719         1.321
Line_EI_1006       1.182e+05     1.185e+05         2.992         2.802        -2.964        -2.319        0.0276        0.4831
Line_EI_1007       1.182e+05     1.185e+05         13.89           8.8        -13.57        -5.385        0.3289         3.415
Line_EI_1008       1.185e+05     1.182e+05        -1.967        0.2165         1.974      0.005326      0.006969        0.2218
Line_EI_1009       1.185e+05     1.182e+05        -1.972        0.2166         1.979      0.001847      0.006999        0.2185
Line_EI_101         1.01e+05     1.011e+05         2.995       -0.5576        -2.978        0.4345       0.01739       -0.1231
Line_EI_1010       1.182e+05     1.185e+05         1.924         1.029        -1.886       -0.7194       0.03776        0.3094
Line_EI_1011       1.185e+05     1.182e+05        -1.984        0.2086         1.991       0.01957      0.007182        0.2282
Line_EI_1012       1.185e+05     1.182e+05        -1.985        0.2087         1.992       0.01859       0.00719        0.2273
Line_EI_1013       1.182e+05     1.185e+05         1.283           0.6        -1.252       -0.3595       0.03156        0.2404
Line_EI_1014       1.187e+05     1.182e+05        -2.529       -0.2049         2.536        0.4536       0.00759        0.2487
Line_EI_1015       1.187e+05     1.182e+05        -2.529       -0.2049         2.536        0.4536       0.00759        0.2487
Line_EI_1016       1.182e+05     1.187e+05         4.223         3.203        -4.198        -2.693       0.02511        0.5096
Line_EI_1017       1.182e+05     1.187e+05         2.158        0.9924        -2.128       -0.5137       0.03002        0.4787
Line_EI_1018       1.182e+05     1.188e+05         2.145         2.007        -2.093        -1.634       0.05189        0.3733
Line_EI_1019       1.189e+05     1.182e+05        -2.945       -0.4795         2.953        0.8132      0.008082        0.3337
Line_EI_102         1.01e+05     1.011e+05         2.995       -0.5576        -2.978        0.4345       0.01739       -0.1231
Line_EI_1020       1.189e+05     1.182e+05        -2.945       -0.4795         2.953        0.8132      0.008082        0.3337
Line_EI_1021       1.182e+05     1.189e+05         4.906         2.437        -4.883        -1.665       0.02271        0.7721
Line_EI_1022       1.182e+05     1.275e+05        0.2591        0.3184        -0.259       -0.2763     0.0001642       0.04213
Line_EI_1023       1.182e+05     1.276e+05         7.708         5.111        -7.706        -3.625      0.001377         1.486
Line_EI_1024       1.182e+05     1.276e+05         4.855         2.838        -4.861        -1.712     -0.005857         1.126
Line_EI_1025       1.182e+05     1.302e+05        0.7734         0.657       -0.7638       -0.5224      0.009584        0.1346
Line_EI_1026       1.182e+05     1.308e+05         1.449        0.6139        -1.429     -0.008495       0.01968        0.6054
Line_EI_1027       1.182e+05      1.31e+05         1.284        0.4397        -1.257       0.02607        0.0265        0.4658
Line_EI_1028       1.182e+05     1.323e+05        0.9105        0.3903       -0.9022       -0.1727      0.008281        0.2177
Line_EI_1029       1.182e+05     1.988e+05         3.059         2.384        -3.035        -1.858        0.0241        0.5255
Line_EI_103         1.01e+05      1.01e+05        -2.875       -0.1113         2.944        0.1693       0.06874       0.05798
Line_EI_1030       1.182e+05      1.99e+05         3.761         2.208         -3.75        -1.478       0.01179        0.7304
Line_EI_1031       1.182e+05     1.997e+05         1.835        0.9203        -1.809       -0.5739       0.02614        0.3464
Line_EI_1032       1.182e+05      3.06e+05     -0.003113        0.7026      0.001813       -0.6269       -0.0013       0.07569
Line_EI_1033       1.184e+05     1.184e+05        -2.581        0.4308         2.603      -0.02918        0.0219        0.4017
Line_EI_1034        1.99e+05     1.184e+05        0.1997       -0.1605       -0.1991         0.171     0.0006258       0.01052
Line_EI_1035       1.184e+05     1.997e+05       -0.1335       0.09846        0.1345      -0.09033     0.0009926      0.008135
Line_EI_1036       1.184e+05     1.184e+05         5.652        0.3797        -5.634        0.5199       0.01836        0.8997
Line_EI_1037       1.184e+05     1.184e+05          6.89        0.5765        -6.811        0.9475       0.07989         1.524
Line_EI_1038       1.184e+05     1.187e+05         2.381        0.3509        -2.321        0.4019       0.05996        0.7528
Line_EI_1039        1.99e+05     1.184e+05       -0.5751      -0.01725        0.5796       0.08845      0.004495        0.0712
Line_EI_104         1.01e+05      1.01e+05        -3.272        -1.073         3.293         1.098       0.02019        0.0252
Line_EI_1040       1.184e+05     1.184e+05        0.9771       0.01312       -0.9555        0.1214       0.02165        0.1345
Line_EI_1041       1.184e+05     1.185e+05         0.442        0.1192       -0.4371      -0.07428      0.004944       0.04496
Line_EI_1042        3.06e+05     1.185e+05        0.9587      -0.07444       -0.9188        0.2653       0.03986        0.1908
Line_EI_1043       1.201e+05     1.204e+05         3.208         2.628          -3.2         -2.32      0.007694        0.3079
Line_EI_1044       1.201e+05     1.205e+05         3.584        0.3871        -3.578     -0.001784      0.006234        0.3853
Line_EI_1045       1.201e+05     1.205e+05         3.584        0.3871        -3.578     -0.001784      0.006234        0.3853
Line_EI_1046       1.201e+05     1.205e+05         3.584        0.3871        -3.578     -0.001784      0.006234        0.3853
Line_EI_1047       1.201e+05     1.205e+05         3.584        0.3871        -3.578     -0.001784      0.006234        0.3853
Line_EI_1048       1.201e+05     1.205e+05        0.6865        0.2136       -0.6826       -0.1369      0.003917       0.07675
Line_EI_1049       1.218e+05     1.201e+05           4.3        0.5693        -4.261       -0.1507       0.03849        0.4186
Line_EI_105         1.01e+05      1.01e+05       -0.6033        0.2785         0.639       -0.3094       0.03577      -0.03094
Line_EI_1050       1.201e+05     1.219e+05       -0.8288       0.07175        0.8449       0.03145       0.01611        0.1032
Line_EI_1051       1.227e+05     1.201e+05         2.195       0.07718        -2.136        0.2915       0.05858        0.3687
Line_EI_1052       1.218e+05     1.202e+05        0.7615       0.07802       -0.7503      0.005903       0.01128       0.08393
Line_EI_1053       1.202e+05     1.219e+05        -1.077       0.02113         1.089        0.1361       0.01269        0.1572
Line_EI_1054       1.227e+05     1.202e+05        0.6045       0.06979        -0.594       0.04317       0.01049         0.113
Line_EI_1055       1.204e+05     1.205e+05        0.8826       -0.3862       -0.8768        0.4349      0.005867        0.0487
Line_EI_1056       1.213e+05     1.218e+05        -2.252        0.2333         2.252      -0.05188     0.0005413        0.1814
Line_EI_1057       1.218e+05     1.213e+05        0.7788       -0.1348       -0.7617         0.204       0.01709       0.06926
Line_EI_1058       1.213e+05     1.219e+05       -0.6406        0.1691        0.6478       -0.1232      0.007192        0.0459
Line_EI_1059       1.214e+05     1.214e+05         1.155     -0.004079        -1.084         0.244       0.07141        0.2399
Line_EI_106         1.01e+05      1.01e+05         3.431        0.1982        -3.431      -0.07177     1.149e-09        0.1264
Line_EI_1060       1.214e+05     1.216e+05         3.635        0.5652        -3.531        0.1361        0.1043        0.7012
Line_EI_1061       1.214e+05     1.218e+05        -1.013       -0.3053         1.014        0.3269      0.000352       0.02159
Line_EI_1062       1.214e+05     1.218e+05        -1.013       -0.3053         1.014        0.3269      0.000352       0.02159
Line_EI_1063       1.214e+05     1.218e+05        -1.013       -0.3053         1.014        0.3269      0.000352       0.02159
Line_EI_1064       1.214e+05     1.218e+05        -1.181       -0.3623         1.182        0.3769     0.0003281       0.01463
Line_EI_1065       1.218e+05     1.214e+05         10.46         1.762        -10.42       -0.5333        0.0404         1.228
Line_EI_1066       1.227e+05     1.214e+05         4.117        0.7311        -4.025        0.8179       0.09212         1.549
Line_EI_1067       1.218e+05     1.214e+05         3.239        0.3141        -2.932        0.9375        0.3071         1.252
Line_EI_1068       1.227e+05     1.214e+05         1.703        0.1638        -1.434        0.7447        0.2688        0.9085
Line_EI_1069       1.218e+05     1.216e+05         1.432        0.5714        -1.422       -0.3665       0.01077        0.2049
Line_EI_107         1.01e+05     1.010e+05        -6.725       -0.3799         6.835         1.134        0.1101        0.7543
Line_EI_1070       1.227e+05     1.216e+05         2.934        0.7823        -2.844        0.4901       0.08921         1.272
Line_EI_1071       1.218e+05     1.216e+05         4.146        0.5084        -3.915        0.4906        0.2304        0.9989
Line_EI_1072       1.218e+05     1.219e+05         1.384         1.608        -1.372        -1.418       0.01198        0.1902
Line_EI_1073       1.219e+05     1.218e+05        -12.68        0.4868         12.69        0.7803       0.01568         1.267
Line_EI_1074       1.218e+05     1.219e+05         2.299        0.3047        -2.295       -0.1899      0.004015        0.1149
Line_EI_1075       1.219e+05     1.218e+05        -1.702       -0.2972         1.709        0.5561      0.006732        0.2589
Line_EI_1076       1.219e+05     1.218e+05        -1.705       0.05484         1.711        0.1961      0.006559         0.251
Line_EI_1077       1.219e+05     1.218e+05        -2.812       -0.6066         2.819        0.9668      0.006803        0.3602
Line_EI_1078       1.219e+05     1.218e+05        -5.639        -1.224         5.652         1.975       0.01356        0.7515
Line_EI_1079       1.219e+05     1.218e+05        -5.621        -1.231         5.634         1.945       0.01343        0.7137
Line_EI_108         1.01e+05     1.010e+05        -6.725       -0.3799         6.835         1.134        0.1101        0.7543
Line_EI_1080       1.218e+05     1.219e+05         4.086      -0.06292        -4.078        0.1978      0.007771        0.1349
Line_EI_1081       1.218e+05     1.226e+05       -0.7921        0.8155        0.7993       -0.7384      0.007255       0.07704
Line_EI_1082       1.218e+05     1.227e+05       -0.8674         0.143        0.8754      -0.04137      0.007965        0.1017
Line_EI_1083       1.218e+05     1.227e+05        -10.16        0.6913          10.2      -0.09185       0.03721        0.5994
Line_EI_1084       1.218e+05     1.232e+05       -0.1203        0.0943        0.1209       -0.0895     0.0006409      0.004799
Line_EI_1085       1.218e+05      1.28e+05       -0.2673       0.09863        0.2686      -0.08369      0.001262       0.01494
Line_EI_1086       1.227e+05     1.219e+05         2.033        0.1947        -1.989        0.3838       0.04454        0.5785
Line_EI_1087       1.227e+05     1.219e+05         4.727      -0.08177        -4.708         0.294       0.01902        0.2122
Line_EI_1088        1.22e+05     1.226e+05       0.06792      -0.02031       -0.0678       0.02195     0.0001168      0.001639
Line_EI_1089       1.227e+05      1.22e+05          4.88         1.409        -4.829     -0.001154       0.05013         1.408
Line_EI_109         1.01e+05      1.01e+05          2.16        0.2927         -2.16       -0.1977     4.637e-10       0.09506
...